@<TRIPOS>MOLECULE
MOH
    6     5     1     0     0
SMALL
bcc


@<TRIPOS>ATOM
      1 C1M          0.0000     0.0000     0.0000 c3         1 MOH       0.116700
      2 H1M          0.0000     0.0000     1.0900 h1         1 MOH       0.028700
      3 H2M          1.0280     0.0000    -0.3630 h1         1 MOH       0.028700
      4 H3M         -0.5140    -0.8900    -0.3630 h1         1 MOH       0.028700
      5 O1M         -1.3000     0.5000     0.0000 oh         1 MOH      -0.598800
      6 HOM         -1.9000     0.0000     0.0000 ho         1 MOH       0.396000
@<TRIPOS>BOND
     1     1     2 1   
     2     1     3 1   
     3     1     4 1   
     4     1     5 1   
     5     5     6 1   
@<TRIPOS>SUBSTRUCTURE
     1 MOH         1 TEMP              0 ****  ****    0 ROOT
