@<TRIPOS>MOLECULE
PRH
   12    11     1     0     0
SMALL
bcc


@<TRIPOS>ATOM
      1 C1P         -1.3760     0.6380    -0.0000 c3         1 PRH      -0.094100
      2 H11P        -1.3090     1.2910     0.8710 hc         1 PRH       0.034367
      3 H12P        -1.3090     1.2910    -0.8710 hc         1 PRH       0.034367
      4 H13P        -2.3290     0.1090    -0.0000 hc         1 PRH       0.034367
      5 C2P         -0.1090    -0.2010     0.0000 c3         1 PRH      -0.085400
      6 H21P        -0.1760    -0.8540     0.8710 hc         1 PRH       0.054700
      7 H22P        -0.1760    -0.8540    -0.8710 hc         1 PRH       0.054700
      8 C3P          1.1590     0.6380     0.0000 c3         1 PRH       0.131400
      9 H31P         1.0920     1.2910     0.8710 h1         1 PRH       0.019700
     10 H32P         1.0920     1.2910    -0.8710 h1         1 PRH       0.019700
     11 O1P          2.3290    -0.2010     0.0000 oh         1 PRH      -0.602800
     12 HOP          3.0560     0.4490     0.0000 ho         1 PRH       0.398000
@<TRIPOS>BOND
     1     1     2 1   
     2     1     3 1   
     3     1     4 1   
     4     1     5 1   
     5     5     6 1   
     6     5     7 1   
     7     5     8 1   
     8     8     9 1   
     9     8    10 1   
    10     8    11 1   
    11    11    12 1   
@<TRIPOS>SUBSTRUCTURE
     1 PRH         1 TEMP              0 ****  ****    0 ROOT
